simoutorder_output.txt:sim_CPI                      1.7720 # cycles per instruction
simoutorder_output.txt:sim_IPC                      0.5643 # instructions per cycle
simoutorder_output.txt:sim_num_insn               39645216 # total number of instructions committed
simoutorder_output.txt:sim_num_loads               7734484 # total number of loads committed
simoutorder_output.txt:sim_num_stores         1336833.0000 # total number of stores committed
simoutorder_output.txt:sim_num_branches             292503 # total number of branches committed
simoutorder_output.txt:dl1.accesses                9071298 # total number of accesses
simoutorder_output.txt:dl1.hits                    8644900 # total number of hits
simoutorder_output.txt:dl1.misses                   426398 # total number of misses
simoutorder_output.txt:dl1.miss_rate                0.0470 # miss rate (i.e., misses/ref)
simoutorder_output.txt:il1.accesses               41505626 # total number of accesses
simoutorder_output.txt:il1.hits                   41503977 # total number of hits
simoutorder_output.txt:il1.misses                     1649 # total number of misses
simoutorder_output.txt:il1.miss_rate                0.0000 # miss rate (i.e., misses/ref)
