simoutorder_output.txt:sim_CPI                      1.7394 # cycles per instruction
simoutorder_output.txt:sim_IPC                      0.5749 # instructions per cycle
simoutorder_output.txt:sim_num_insn              328709416 # total number of instructions committed
simoutorder_output.txt:sim_num_loads              60918034 # total number of loads committed
simoutorder_output.txt:sim_num_stores         10342533.0000 # total number of stores committed
simoutorder_output.txt:sim_num_branches            2156053 # total number of branches committed
simoutorder_output.txt:dl1.accesses               71260489 # total number of accesses
simoutorder_output.txt:dl1.hits                   67898295 # total number of hits
simoutorder_output.txt:dl1.misses                  3362194 # total number of misses
simoutorder_output.txt:dl1.miss_rate                0.0472 # miss rate (i.e., misses/ref)
simoutorder_output.txt:il1.accesses              343115570 # total number of accesses
simoutorder_output.txt:il1.hits                  343113916 # total number of hits
simoutorder_output.txt:il1.misses                     1654 # total number of misses
simoutorder_output.txt:il1.miss_rate                0.0000 # miss rate (i.e., misses/ref)
