simoutorder_output.txt:sim_CPI                      1.5984 # cycles per instruction
simoutorder_output.txt:sim_IPC                      0.6256 # instructions per cycle
simoutorder_output.txt:sim_num_insn              323658816 # total number of instructions committed
simoutorder_output.txt:sim_num_loads              57895384 # total number of loads committed
simoutorder_output.txt:sim_num_stores         8827433.0000 # total number of stores committed
simoutorder_output.txt:sim_num_branches             633403 # total number of branches committed
simoutorder_output.txt:dl1.accesses               66722739 # total number of accesses
simoutorder_output.txt:dl1.hits                   64146066 # total number of hits
simoutorder_output.txt:dl1.misses                  2576673 # total number of misses
simoutorder_output.txt:dl1.miss_rate                0.0386 # miss rate (i.e., misses/ref)
simoutorder_output.txt:il1.accesses              327512357 # total number of accesses
simoutorder_output.txt:il1.hits                  327510224 # total number of hits
simoutorder_output.txt:il1.misses                     2133 # total number of misses
simoutorder_output.txt:il1.miss_rate                0.0000 # miss rate (i.e., misses/ref)
