simoutorder_output.txt:sim_CPI                      2.0234 # cycles per instruction
simoutorder_output.txt:sim_IPC                      0.4942 # instructions per cycle
simoutorder_output.txt:sim_num_insn             5007726624 # total number of instructions committed
simoutorder_output.txt:sim_num_loads             835050736 # total number of loads committed
simoutorder_output.txt:sim_num_stores         129284335.0000 # total number of stores committed
simoutorder_output.txt:sim_num_branches           64968753 # total number of branches committed
simoutorder_output.txt:dl1.accesses              964335071 # total number of accesses
simoutorder_output.txt:dl1.hits                  888201451 # total number of hits
simoutorder_output.txt:dl1.misses                 76133620 # total number of misses
simoutorder_output.txt:dl1.miss_rate                0.0789 # miss rate (i.e., misses/ref)
simoutorder_output.txt:il1.accesses             5392551038 # total number of accesses
simoutorder_output.txt:il1.hits                 5392549493 # total number of hits
simoutorder_output.txt:il1.misses                     1545 # total number of misses
simoutorder_output.txt:il1.miss_rate                0.0000 # miss rate (i.e., misses/ref)
